
---------- Begin Simulation Statistics ----------
simSeconds                                   0.007711                       # Number of seconds simulated (Second)
simTicks                                   7710505000                       # Number of ticks simulated (Tick)
finalTick                                  7710505000                       # Number of ticks from beginning of simulation (restored from checkpoints and never reset) (Tick)
simFreq                                  1000000000000                       # The number of ticks per simulated second ((Tick/Second))
hostSeconds                                    227.65                       # Real time elapsed on the host (Second)
hostTickRate                                 33869304                       # The number of ticks simulated per host second (ticks/s) ((Tick/Second))
hostMemory                                     656132                       # Number of bytes of host memory used (Byte)
simInsts                                      4267330                       # Number of instructions simulated (Count)
simOps                                        7553230                       # Number of ops (including micro ops) simulated (Count)
hostInstRate                                    18745                       # Simulator instruction rate (inst/s) ((Count/Second))
hostOpRate                                      33178                       # Simulator op (including micro ops) rate (op/s) ((Count/Second))
system.clk_domain.clock                          1000                       # Clock period in ticks (Tick)
system.clk_domain.voltage_domain.voltage            1                       # Voltage in Volts (Volt)
system.cpu.numCycles                          7710506                       # Number of cpu cycles simulated (Cycle)
system.cpu.numWorkItemsStarted                      0                       # Number of work items this cpu started (Count)
system.cpu.numWorkItemsCompleted                    0                       # Number of work items this cpu completed (Count)
system.cpu.instsAdded                         9698004                       # Number of instructions added to the IQ (excludes non-spec) (Count)
system.cpu.nonSpecInstsAdded                   138710                       # Number of non-speculative instructions added to the IQ (Count)
system.cpu.instsIssued                        8637508                       # Number of instructions issued (Count)
system.cpu.squashedInstsIssued                  17960                       # Number of squashed instructions issued (Count)
system.cpu.squashedInstsExamined              2283414                       # Number of squashed instructions iterated over during squash; mainly for profiling (Count)
system.cpu.squashedOperandsExamined           5578112                       # Number of squashed operands that are examined and possibly removed from graph (Count)
system.cpu.squashedNonSpecRemoved               78044                       # Number of squashed non-spec instructions that were removed (Count)
system.cpu.numIssuedDist::samples             7659568                       # Number of insts issued each cycle (Count)
system.cpu.numIssuedDist::mean               1.127676                       # Number of insts issued each cycle (Count)
system.cpu.numIssuedDist::stdev              1.673815                       # Number of insts issued each cycle (Count)
system.cpu.numIssuedDist::underflows                0      0.00%      0.00% # Number of insts issued each cycle (Count)
system.cpu.numIssuedDist::0                   4474484     58.42%     58.42% # Number of insts issued each cycle (Count)
system.cpu.numIssuedDist::1                    772542     10.09%     68.50% # Number of insts issued each cycle (Count)
system.cpu.numIssuedDist::2                    924305     12.07%     80.57% # Number of insts issued each cycle (Count)
system.cpu.numIssuedDist::3                    694605      9.07%     89.64% # Number of insts issued each cycle (Count)
system.cpu.numIssuedDist::4                    396579      5.18%     94.82% # Number of insts issued each cycle (Count)
system.cpu.numIssuedDist::5                    125454      1.64%     96.45% # Number of insts issued each cycle (Count)
system.cpu.numIssuedDist::6                    211091      2.76%     99.21% # Number of insts issued each cycle (Count)
system.cpu.numIssuedDist::7                     31655      0.41%     99.62% # Number of insts issued each cycle (Count)
system.cpu.numIssuedDist::8                     28853      0.38%    100.00% # Number of insts issued each cycle (Count)
system.cpu.numIssuedDist::overflows                 0      0.00%    100.00% # Number of insts issued each cycle (Count)
system.cpu.numIssuedDist::min_value                 0                       # Number of insts issued each cycle (Count)
system.cpu.numIssuedDist::max_value                 8                       # Number of insts issued each cycle (Count)
system.cpu.numIssuedDist::total               7659568                       # Number of insts issued each cycle (Count)
system.cpu.statFuBusy::No_OpClass                   0      0.00%      0.00% # attempts to use FU when none available (Count)
system.cpu.statFuBusy::IntAlu                   39910     59.35%     59.35% # attempts to use FU when none available (Count)
system.cpu.statFuBusy::IntMult                      0      0.00%     59.35% # attempts to use FU when none available (Count)
system.cpu.statFuBusy::IntDiv                       0      0.00%     59.35% # attempts to use FU when none available (Count)
system.cpu.statFuBusy::FloatAdd                     0      0.00%     59.35% # attempts to use FU when none available (Count)
system.cpu.statFuBusy::FloatCmp                     0      0.00%     59.35% # attempts to use FU when none available (Count)
system.cpu.statFuBusy::FloatCvt                     0      0.00%     59.35% # attempts to use FU when none available (Count)
system.cpu.statFuBusy::FloatMult                    0      0.00%     59.35% # attempts to use FU when none available (Count)
system.cpu.statFuBusy::FloatMultAcc                 0      0.00%     59.35% # attempts to use FU when none available (Count)
system.cpu.statFuBusy::FloatDiv                     0      0.00%     59.35% # attempts to use FU when none available (Count)
system.cpu.statFuBusy::FloatMisc                    0      0.00%     59.35% # attempts to use FU when none available (Count)
system.cpu.statFuBusy::FloatSqrt                    0      0.00%     59.35% # attempts to use FU when none available (Count)
system.cpu.statFuBusy::SimdAdd                      0      0.00%     59.35% # attempts to use FU when none available (Count)
system.cpu.statFuBusy::SimdAddAcc                   0      0.00%     59.35% # attempts to use FU when none available (Count)
system.cpu.statFuBusy::SimdAlu                     17      0.03%     59.37% # attempts to use FU when none available (Count)
system.cpu.statFuBusy::SimdCmp                      0      0.00%     59.37% # attempts to use FU when none available (Count)
system.cpu.statFuBusy::SimdCvt                     19      0.03%     59.40% # attempts to use FU when none available (Count)
system.cpu.statFuBusy::SimdMisc                     3      0.00%     59.40% # attempts to use FU when none available (Count)
system.cpu.statFuBusy::SimdMult                     0      0.00%     59.40% # attempts to use FU when none available (Count)
system.cpu.statFuBusy::SimdMultAcc                  0      0.00%     59.40% # attempts to use FU when none available (Count)
system.cpu.statFuBusy::SimdShift                    2      0.00%     59.41% # attempts to use FU when none available (Count)
system.cpu.statFuBusy::SimdShiftAcc                 0      0.00%     59.41% # attempts to use FU when none available (Count)
system.cpu.statFuBusy::SimdDiv                      0      0.00%     59.41% # attempts to use FU when none available (Count)
system.cpu.statFuBusy::SimdSqrt                     0      0.00%     59.41% # attempts to use FU when none available (Count)
system.cpu.statFuBusy::SimdFloatAdd                 0      0.00%     59.41% # attempts to use FU when none available (Count)
system.cpu.statFuBusy::SimdFloatAlu                 0      0.00%     59.41% # attempts to use FU when none available (Count)
system.cpu.statFuBusy::SimdFloatCmp                 0      0.00%     59.41% # attempts to use FU when none available (Count)
system.cpu.statFuBusy::SimdFloatCvt                 0      0.00%     59.41% # attempts to use FU when none available (Count)
system.cpu.statFuBusy::SimdFloatDiv                 0      0.00%     59.41% # attempts to use FU when none available (Count)
system.cpu.statFuBusy::SimdFloatMisc                0      0.00%     59.41% # attempts to use FU when none available (Count)
system.cpu.statFuBusy::SimdFloatMult                0      0.00%     59.41% # attempts to use FU when none available (Count)
system.cpu.statFuBusy::SimdFloatMultAcc             0      0.00%     59.41% # attempts to use FU when none available (Count)
system.cpu.statFuBusy::SimdFloatSqrt                0      0.00%     59.41% # attempts to use FU when none available (Count)
system.cpu.statFuBusy::SimdReduceAdd                0      0.00%     59.41% # attempts to use FU when none available (Count)
system.cpu.statFuBusy::SimdReduceAlu                0      0.00%     59.41% # attempts to use FU when none available (Count)
system.cpu.statFuBusy::SimdReduceCmp                0      0.00%     59.41% # attempts to use FU when none available (Count)
system.cpu.statFuBusy::SimdFloatReduceAdd            0      0.00%     59.41% # attempts to use FU when none available (Count)
system.cpu.statFuBusy::SimdFloatReduceCmp            0      0.00%     59.41% # attempts to use FU when none available (Count)
system.cpu.statFuBusy::SimdAes                      0      0.00%     59.41% # attempts to use FU when none available (Count)
system.cpu.statFuBusy::SimdAesMix                   0      0.00%     59.41% # attempts to use FU when none available (Count)
system.cpu.statFuBusy::SimdSha1Hash                 0      0.00%     59.41% # attempts to use FU when none available (Count)
system.cpu.statFuBusy::SimdSha1Hash2                0      0.00%     59.41% # attempts to use FU when none available (Count)
system.cpu.statFuBusy::SimdSha256Hash               0      0.00%     59.41% # attempts to use FU when none available (Count)
system.cpu.statFuBusy::SimdSha256Hash2              0      0.00%     59.41% # attempts to use FU when none available (Count)
system.cpu.statFuBusy::SimdShaSigma2                0      0.00%     59.41% # attempts to use FU when none available (Count)
system.cpu.statFuBusy::SimdShaSigma3                0      0.00%     59.41% # attempts to use FU when none available (Count)
system.cpu.statFuBusy::SimdPredAlu                  0      0.00%     59.41% # attempts to use FU when none available (Count)
system.cpu.statFuBusy::MemRead                  26924     40.04%     99.44% # attempts to use FU when none available (Count)
system.cpu.statFuBusy::MemWrite                   325      0.48%     99.93% # attempts to use FU when none available (Count)
system.cpu.statFuBusy::FloatMemRead                20      0.03%     99.96% # attempts to use FU when none available (Count)
system.cpu.statFuBusy::FloatMemWrite               29      0.04%    100.00% # attempts to use FU when none available (Count)
system.cpu.statFuBusy::IprAccess                    0      0.00%    100.00% # attempts to use FU when none available (Count)
system.cpu.statFuBusy::InstPrefetch                 0      0.00%    100.00% # attempts to use FU when none available (Count)
system.cpu.statIssuedInstType_0::No_OpClass         5574      0.06%      0.06% # Number of instructions issued per FU type, per thread (Count)
system.cpu.statIssuedInstType_0::IntAlu       6276113     72.66%     72.73% # Number of instructions issued per FU type, per thread (Count)
system.cpu.statIssuedInstType_0::IntMult        21879      0.25%     72.98% # Number of instructions issued per FU type, per thread (Count)
system.cpu.statIssuedInstType_0::IntDiv          2553      0.03%     73.01% # Number of instructions issued per FU type, per thread (Count)
system.cpu.statIssuedInstType_0::FloatAdd          555      0.01%     73.01% # Number of instructions issued per FU type, per thread (Count)
system.cpu.statIssuedInstType_0::FloatCmp            0      0.00%     73.01% # Number of instructions issued per FU type, per thread (Count)
system.cpu.statIssuedInstType_0::FloatCvt           32      0.00%     73.02% # Number of instructions issued per FU type, per thread (Count)
system.cpu.statIssuedInstType_0::FloatMult            0      0.00%     73.02% # Number of instructions issued per FU type, per thread (Count)
system.cpu.statIssuedInstType_0::FloatMultAcc            0      0.00%     73.02% # Number of instructions issued per FU type, per thread (Count)
system.cpu.statIssuedInstType_0::FloatDiv            0      0.00%     73.02% # Number of instructions issued per FU type, per thread (Count)
system.cpu.statIssuedInstType_0::FloatMisc            0      0.00%     73.02% # Number of instructions issued per FU type, per thread (Count)
system.cpu.statIssuedInstType_0::FloatSqrt            0      0.00%     73.02% # Number of instructions issued per FU type, per thread (Count)
system.cpu.statIssuedInstType_0::SimdAdd          451      0.01%     73.02% # Number of instructions issued per FU type, per thread (Count)
system.cpu.statIssuedInstType_0::SimdAddAcc            0      0.00%     73.02% # Number of instructions issued per FU type, per thread (Count)
system.cpu.statIssuedInstType_0::SimdAlu         1238      0.01%     73.03% # Number of instructions issued per FU type, per thread (Count)
system.cpu.statIssuedInstType_0::SimdCmp            0      0.00%     73.03% # Number of instructions issued per FU type, per thread (Count)
system.cpu.statIssuedInstType_0::SimdCvt         1290      0.01%     73.05% # Number of instructions issued per FU type, per thread (Count)
system.cpu.statIssuedInstType_0::SimdMisc         1309      0.02%     73.06% # Number of instructions issued per FU type, per thread (Count)
system.cpu.statIssuedInstType_0::SimdMult            0      0.00%     73.06% # Number of instructions issued per FU type, per thread (Count)
system.cpu.statIssuedInstType_0::SimdMultAcc            0      0.00%     73.06% # Number of instructions issued per FU type, per thread (Count)
system.cpu.statIssuedInstType_0::SimdShift          257      0.00%     73.07% # Number of instructions issued per FU type, per thread (Count)
system.cpu.statIssuedInstType_0::SimdShiftAcc            0      0.00%     73.07% # Number of instructions issued per FU type, per thread (Count)
system.cpu.statIssuedInstType_0::SimdDiv            0      0.00%     73.07% # Number of instructions issued per FU type, per thread (Count)
system.cpu.statIssuedInstType_0::SimdSqrt            0      0.00%     73.07% # Number of instructions issued per FU type, per thread (Count)
system.cpu.statIssuedInstType_0::SimdFloatAdd            0      0.00%     73.07% # Number of instructions issued per FU type, per thread (Count)
system.cpu.statIssuedInstType_0::SimdFloatAlu            0      0.00%     73.07% # Number of instructions issued per FU type, per thread (Count)
system.cpu.statIssuedInstType_0::SimdFloatCmp            0      0.00%     73.07% # Number of instructions issued per FU type, per thread (Count)
system.cpu.statIssuedInstType_0::SimdFloatCvt            0      0.00%     73.07% # Number of instructions issued per FU type, per thread (Count)
system.cpu.statIssuedInstType_0::SimdFloatDiv            0      0.00%     73.07% # Number of instructions issued per FU type, per thread (Count)
system.cpu.statIssuedInstType_0::SimdFloatMisc            0      0.00%     73.07% # Number of instructions issued per FU type, per thread (Count)
system.cpu.statIssuedInstType_0::SimdFloatMult            0      0.00%     73.07% # Number of instructions issued per FU type, per thread (Count)
system.cpu.statIssuedInstType_0::SimdFloatMultAcc            0      0.00%     73.07% # Number of instructions issued per FU type, per thread (Count)
system.cpu.statIssuedInstType_0::SimdFloatSqrt            0      0.00%     73.07% # Number of instructions issued per FU type, per thread (Count)
system.cpu.statIssuedInstType_0::SimdReduceAdd            0      0.00%     73.07% # Number of instructions issued per FU type, per thread (Count)
system.cpu.statIssuedInstType_0::SimdReduceAlu            0      0.00%     73.07% # Number of instructions issued per FU type, per thread (Count)
system.cpu.statIssuedInstType_0::SimdReduceCmp            0      0.00%     73.07% # Number of instructions issued per FU type, per thread (Count)
system.cpu.statIssuedInstType_0::SimdFloatReduceAdd            0      0.00%     73.07% # Number of instructions issued per FU type, per thread (Count)
system.cpu.statIssuedInstType_0::SimdFloatReduceCmp            0      0.00%     73.07% # Number of instructions issued per FU type, per thread (Count)
system.cpu.statIssuedInstType_0::SimdAes            0      0.00%     73.07% # Number of instructions issued per FU type, per thread (Count)
system.cpu.statIssuedInstType_0::SimdAesMix            0      0.00%     73.07% # Number of instructions issued per FU type, per thread (Count)
system.cpu.statIssuedInstType_0::SimdSha1Hash            0      0.00%     73.07% # Number of instructions issued per FU type, per thread (Count)
system.cpu.statIssuedInstType_0::SimdSha1Hash2            0      0.00%     73.07% # Number of instructions issued per FU type, per thread (Count)
system.cpu.statIssuedInstType_0::SimdSha256Hash            0      0.00%     73.07% # Number of instructions issued per FU type, per thread (Count)
system.cpu.statIssuedInstType_0::SimdSha256Hash2            0      0.00%     73.07% # Number of instructions issued per FU type, per thread (Count)
system.cpu.statIssuedInstType_0::SimdShaSigma2            0      0.00%     73.07% # Number of instructions issued per FU type, per thread (Count)
system.cpu.statIssuedInstType_0::SimdShaSigma3            0      0.00%     73.07% # Number of instructions issued per FU type, per thread (Count)
system.cpu.statIssuedInstType_0::SimdPredAlu            0      0.00%     73.07% # Number of instructions issued per FU type, per thread (Count)
system.cpu.statIssuedInstType_0::MemRead      1496915     17.33%     90.40% # Number of instructions issued per FU type, per thread (Count)
system.cpu.statIssuedInstType_0::MemWrite       826156      9.56%     99.96% # Number of instructions issued per FU type, per thread (Count)
system.cpu.statIssuedInstType_0::FloatMemRead         1822      0.02%     99.98% # Number of instructions issued per FU type, per thread (Count)
system.cpu.statIssuedInstType_0::FloatMemWrite         1364      0.02%    100.00% # Number of instructions issued per FU type, per thread (Count)
system.cpu.statIssuedInstType_0::IprAccess            0      0.00%    100.00% # Number of instructions issued per FU type, per thread (Count)
system.cpu.statIssuedInstType_0::InstPrefetch            0      0.00%    100.00% # Number of instructions issued per FU type, per thread (Count)
system.cpu.statIssuedInstType_0::total        8637508                       # Number of instructions issued per FU type, per thread (Count)
system.cpu.issueRate                         1.120226                       # Inst issue rate ((Count/Cycle))
system.cpu.fuBusy                               67249                       # FU busy when requested (Count)
system.cpu.fuBusyRate                        0.007786                       # FU busy rate (busy events/executed inst) ((Count/Count))
system.cpu.intInstQueueReads                 25002155                       # Number of integer instruction queue reads (Count)
system.cpu.intInstQueueWrites                12132531                       # Number of integer instruction queue writes (Count)
system.cpu.intInstQueueWakeupAccesses         8592017                       # Number of integer instruction queue wakeup accesses (Count)
system.cpu.fpInstQueueReads                     17633                       # Number of floating instruction queue reads (Count)
system.cpu.fpInstQueueWrites                    14191                       # Number of floating instruction queue writes (Count)
system.cpu.fpInstQueueWakeupAccesses             8264                       # Number of floating instruction queue wakeup accesses (Count)
system.cpu.vecInstQueueReads                        0                       # Number of vector instruction queue reads (Count)
system.cpu.vecInstQueueWrites                       0                       # Number of vector instruction queue writes (Count)
system.cpu.vecInstQueueWakeupAccesses               0                       # Number of vector instruction queue wakeup accesses (Count)
system.cpu.intAluAccesses                     8690337                       # Number of integer alu accesses (Count)
system.cpu.fpAluAccesses                         8846                       # Number of floating point alu accesses (Count)
system.cpu.vecAluAccesses                           0                       # Number of vector alu accesses (Count)
system.cpu.numInsts                           8618023                       # Number of executed instructions (Count)
system.cpu.numLoadInsts                       1493806                       # Number of load instructions executed (Count)
system.cpu.numSquashedInsts                     19480                       # Number of squashed instructions skipped in execute (Count)
system.cpu.numSwp                                   0                       # Number of swp insts executed (Count)
system.cpu.numNop                                   0                       # Number of nop insts executed (Count)
system.cpu.numRefs                            2314025                       # Number of memory reference insts executed (Count)
system.cpu.numBranches                         604466                       # Number of branches executed (Count)
system.cpu.numStoreInsts                       820219                       # Number of stores executed (Count)
system.cpu.numRate                           1.117699                       # Inst execution rate ((Count/Cycle))
system.cpu.timesIdled                             812                       # Number of times that the entire CPU went into an idle state and unscheduled itself (Count)
system.cpu.idleCycles                           50938                       # Total number of cycles that the CPU has spent unscheduled due to idling (Cycle)
system.cpu.committedInsts                     4267330                       # Number of Instructions Simulated (Count)
system.cpu.committedOps                       7553230                       # Number of Ops (including micro ops) Simulated (Count)
system.cpu.cpi                               1.806869                       # CPI: Cycles Per Instruction ((Cycle/Count))
system.cpu.totalCpi                          1.806869                       # CPI: Total CPI of All Threads ((Cycle/Count))
system.cpu.ipc                               0.553444                       # IPC: Instructions Per Cycle ((Count/Cycle))
system.cpu.totalIpc                          0.553444                       # IPC: Total IPC of All Threads ((Count/Cycle))
system.cpu.intRegfileReads                    9378160                       # Number of integer regfile reads (Count)
system.cpu.intRegfileWrites                   6444032                       # Number of integer regfile writes (Count)
system.cpu.fpRegfileReads                       12005                       # Number of floating regfile reads (Count)
system.cpu.fpRegfileWrites                       6380                       # Number of floating regfile writes (Count)
system.cpu.ccRegfileReads                     3102973                       # number of cc regfile reads (Count)
system.cpu.ccRegfileWrites                    2658185                       # number of cc regfile writes (Count)
system.cpu.miscRegfileReads                   4019191                       # number of misc regfile reads (Count)
system.cpu.miscRegfileWrites                       18                       # number of misc regfile writes (Count)
system.cpu.MemDepUnit__0.insertedLoads        1813570                       # Number of loads inserted to the mem dependence unit. (Count)
system.cpu.MemDepUnit__0.insertedStores       1064254                       # Number of stores inserted to the mem dependence unit. (Count)
system.cpu.MemDepUnit__0.conflictingLoads      1476709                       # Number of conflicting loads. (Count)
system.cpu.MemDepUnit__0.conflictingStores       629400                       # Number of conflicting stores. (Count)
system.cpu.MemDepUnit__1.insertedLoads              0                       # Number of loads inserted to the mem dependence unit. (Count)
system.cpu.MemDepUnit__1.insertedStores             0                       # Number of stores inserted to the mem dependence unit. (Count)
system.cpu.MemDepUnit__1.conflictingLoads            0                       # Number of conflicting loads. (Count)
system.cpu.MemDepUnit__1.conflictingStores            0                       # Number of conflicting stores. (Count)
system.cpu.MemDepUnit__2.insertedLoads              0                       # Number of loads inserted to the mem dependence unit. (Count)
system.cpu.MemDepUnit__2.insertedStores             0                       # Number of stores inserted to the mem dependence unit. (Count)
system.cpu.MemDepUnit__2.conflictingLoads            0                       # Number of conflicting loads. (Count)
system.cpu.MemDepUnit__2.conflictingStores            0                       # Number of conflicting stores. (Count)
system.cpu.MemDepUnit__3.insertedLoads              0                       # Number of loads inserted to the mem dependence unit. (Count)
system.cpu.MemDepUnit__3.insertedStores             0                       # Number of stores inserted to the mem dependence unit. (Count)
system.cpu.MemDepUnit__3.conflictingLoads            0                       # Number of conflicting loads. (Count)
system.cpu.MemDepUnit__3.conflictingStores            0                       # Number of conflicting stores. (Count)
system.cpu.branchPred.lookups                  776543                       # Number of BP lookups (Count)
system.cpu.branchPred.condPredicted            743732                       # Number of conditional branches predicted (Count)
system.cpu.branchPred.condIncorrect              5147                       # Number of conditional branches incorrect (Count)
system.cpu.branchPred.BTBLookups               673605                       # Number of BTB lookups (Count)
system.cpu.branchPred.BTBHits                  672866                       # Number of BTB hits (Count)
system.cpu.branchPred.BTBHitRatio            0.998903                       # BTB Hit Ratio (Ratio)
system.cpu.branchPred.RASUsed                    3810                       # Number of times the RAS was used to get a target. (Count)
system.cpu.branchPred.RASIncorrect                  4                       # Number of incorrect RAS predictions. (Count)
system.cpu.branchPred.indirectLookups            1471                       # Number of indirect predictor lookups. (Count)
system.cpu.branchPred.indirectHits                319                       # Number of indirect target hits. (Count)
system.cpu.branchPred.indirectMisses             1152                       # Number of indirect misses. (Count)
system.cpu.branchPred.indirectMispredicted          311                       # Number of mispredicted indirect branches. (Count)
system.cpu.branchPred.loop_predictor.correct       519854                       # Number of times the loop predictor is the provider and the prediction is correct (Count)
system.cpu.branchPred.loop_predictor.wrong        15305                       # Number of times the loop predictor is the provider and the prediction is wrong (Count)
system.cpu.branchPred.tage.longestMatchProviderCorrect       337153                       # Number of times TAGE Longest Match is the provider and the prediction is correct (Count)
system.cpu.branchPred.tage.altMatchProviderCorrect         1597                       # Number of times TAGE Alt Match is the provider and the prediction is correct (Count)
system.cpu.branchPred.tage.bimodalAltMatchProviderCorrect          430                       # Number of times TAGE Alt Match is the bimodal and it is the provider and the prediction is correct (Count)
system.cpu.branchPred.tage.bimodalProviderCorrect       192266                       # Number of times there are no hits on the TAGE tables and the bimodal prediction is correct (Count)
system.cpu.branchPred.tage.longestMatchProviderWrong         1946                       # Number of times TAGE Longest Match is the provider and the prediction is wrong (Count)
system.cpu.branchPred.tage.altMatchProviderWrong          748                       # Number of times TAGE Alt Match is the provider and the prediction is wrong (Count)
system.cpu.branchPred.tage.bimodalAltMatchProviderWrong          154                       # Number of times TAGE Alt Match is the bimodal and it is the provider and the prediction is wrong (Count)
system.cpu.branchPred.tage.bimodalProviderWrong          865                       # Number of times there are no hits on the TAGE tables and the bimodal prediction is wrong (Count)
system.cpu.branchPred.tage.altMatchProviderWouldHaveHit          397                       # Number of times TAGE Longest Match is the provider, the prediction is wrong and Alt Match prediction was correct (Count)
system.cpu.branchPred.tage.longestMatchProviderWouldHaveHit          521                       # Number of times TAGE Alt Match is the provider, the prediction is wrong and Longest Match prediction was correct (Count)
system.cpu.branchPred.tage.longestMatchProvider::0            0                       # TAGE provider for longest match (Count)
system.cpu.branchPred.tage.longestMatchProvider::1        15244                       # TAGE provider for longest match (Count)
system.cpu.branchPred.tage.longestMatchProvider::2         4932                       # TAGE provider for longest match (Count)
system.cpu.branchPred.tage.longestMatchProvider::3         8587                       # TAGE provider for longest match (Count)
system.cpu.branchPred.tage.longestMatchProvider::4       110711                       # TAGE provider for longest match (Count)
system.cpu.branchPred.tage.longestMatchProvider::5        11879                       # TAGE provider for longest match (Count)
system.cpu.branchPred.tage.longestMatchProvider::6        11031                       # TAGE provider for longest match (Count)
system.cpu.branchPred.tage.longestMatchProvider::7        89459                       # TAGE provider for longest match (Count)
system.cpu.branchPred.tage.longestMatchProvider::8        43130                       # TAGE provider for longest match (Count)
system.cpu.branchPred.tage.longestMatchProvider::9        15168                       # TAGE provider for longest match (Count)
system.cpu.branchPred.tage.longestMatchProvider::10         6812                       # TAGE provider for longest match (Count)
system.cpu.branchPred.tage.longestMatchProvider::11         8792                       # TAGE provider for longest match (Count)
system.cpu.branchPred.tage.longestMatchProvider::12        15699                       # TAGE provider for longest match (Count)
system.cpu.branchPred.tage.altMatchProvider::0        21208                       # TAGE provider for alt match (Count)
system.cpu.branchPred.tage.altMatchProvider::1         4923                       # TAGE provider for alt match (Count)
system.cpu.branchPred.tage.altMatchProvider::2         6313                       # TAGE provider for alt match (Count)
system.cpu.branchPred.tage.altMatchProvider::3       119112                       # TAGE provider for alt match (Count)
system.cpu.branchPred.tage.altMatchProvider::4        89812                       # TAGE provider for alt match (Count)
system.cpu.branchPred.tage.altMatchProvider::5         6661                       # TAGE provider for alt match (Count)
system.cpu.branchPred.tage.altMatchProvider::6        13430                       # TAGE provider for alt match (Count)
system.cpu.branchPred.tage.altMatchProvider::7        46843                       # TAGE provider for alt match (Count)
system.cpu.branchPred.tage.altMatchProvider::8         4799                       # TAGE provider for alt match (Count)
system.cpu.branchPred.tage.altMatchProvider::9         9456                       # TAGE provider for alt match (Count)
system.cpu.branchPred.tage.altMatchProvider::10         4605                       # TAGE provider for alt match (Count)
system.cpu.branchPred.tage.altMatchProvider::11        14282                       # TAGE provider for alt match (Count)
system.cpu.branchPred.tage.altMatchProvider::12            0                       # TAGE provider for alt match (Count)
system.cpu.commit.commitSquashedInsts         2282116                       # The number of squashed insts skipped by commit (Count)
system.cpu.commit.commitNonSpecStalls           60666                       # The number of times commit has been forced to stall to communicate backwards (Count)
system.cpu.commit.branchMispredicts              4749                       # The number of times a branch was mispredicted (Count)
system.cpu.commit.numCommittedDist::samples      7357173                       # Number of insts commited each cycle (Count)
system.cpu.commit.numCommittedDist::mean     1.026648                       # Number of insts commited each cycle (Count)
system.cpu.commit.numCommittedDist::stdev     1.919970                       # Number of insts commited each cycle (Count)
system.cpu.commit.numCommittedDist::underflows            0      0.00%      0.00% # Number of insts commited each cycle (Count)
system.cpu.commit.numCommittedDist::0         4978648     67.67%     67.67% # Number of insts commited each cycle (Count)
system.cpu.commit.numCommittedDist::1          585098      7.95%     75.62% # Number of insts commited each cycle (Count)
system.cpu.commit.numCommittedDist::2          470300      6.39%     82.02% # Number of insts commited each cycle (Count)
system.cpu.commit.numCommittedDist::3          702270      9.55%     91.56% # Number of insts commited each cycle (Count)
system.cpu.commit.numCommittedDist::4           28578      0.39%     91.95% # Number of insts commited each cycle (Count)
system.cpu.commit.numCommittedDist::5          259136      3.52%     95.47% # Number of insts commited each cycle (Count)
system.cpu.commit.numCommittedDist::6           73906      1.00%     96.48% # Number of insts commited each cycle (Count)
system.cpu.commit.numCommittedDist::7            6602      0.09%     96.57% # Number of insts commited each cycle (Count)
system.cpu.commit.numCommittedDist::8          252635      3.43%    100.00% # Number of insts commited each cycle (Count)
system.cpu.commit.numCommittedDist::overflows            0      0.00%    100.00% # Number of insts commited each cycle (Count)
system.cpu.commit.numCommittedDist::min_value            0                       # Number of insts commited each cycle (Count)
system.cpu.commit.numCommittedDist::max_value            8                       # Number of insts commited each cycle (Count)
system.cpu.commit.numCommittedDist::total      7357173                       # Number of insts commited each cycle (Count)
system.cpu.commit.instsCommitted              4267330                       # Number of instructions committed (Count)
system.cpu.commit.opsCommitted                7553230                       # Number of ops (including micro ops) committed (Count)
system.cpu.commit.memRefs                     2176758                       # Number of memory references committed (Count)
system.cpu.commit.loads                       1381832                       # Number of loads committed (Count)
system.cpu.commit.amos                              0                       # Number of atomic instructions committed (Count)
system.cpu.commit.membars                       60648                       # Number of memory barriers committed (Count)
system.cpu.commit.branches                     559482                       # Number of branches committed (Count)
system.cpu.commit.vectorInstructions                0                       # Number of committed Vector instructions. (Count)
system.cpu.commit.floating                       6387                       # Number of committed floating point instructions. (Count)
system.cpu.commit.integer                     7460455                       # Number of committed integer instructions. (Count)
system.cpu.commit.functionCalls                  3191                       # Number of function calls committed. (Count)
system.cpu.commit.committedInstType_0::No_OpClass         3637      0.05%      0.05% # Class of committed instruction (Count)
system.cpu.commit.committedInstType_0::IntAlu      5344850     70.76%     70.81% # Class of committed instruction (Count)
system.cpu.commit.committedInstType_0::IntMult        21756      0.29%     71.10% # Class of committed instruction (Count)
system.cpu.commit.committedInstType_0::IntDiv         2436      0.03%     71.13% # Class of committed instruction (Count)
system.cpu.commit.committedInstType_0::FloatAdd          405      0.01%     71.14% # Class of committed instruction (Count)
system.cpu.commit.committedInstType_0::FloatCmp            0      0.00%     71.14% # Class of committed instruction (Count)
system.cpu.commit.committedInstType_0::FloatCvt           32      0.00%     71.14% # Class of committed instruction (Count)
system.cpu.commit.committedInstType_0::FloatMult            0      0.00%     71.14% # Class of committed instruction (Count)
system.cpu.commit.committedInstType_0::FloatMultAcc            0      0.00%     71.14% # Class of committed instruction (Count)
system.cpu.commit.committedInstType_0::FloatDiv            0      0.00%     71.14% # Class of committed instruction (Count)
system.cpu.commit.committedInstType_0::FloatMisc            0      0.00%     71.14% # Class of committed instruction (Count)
system.cpu.commit.committedInstType_0::FloatSqrt            0      0.00%     71.14% # Class of committed instruction (Count)
system.cpu.commit.committedInstType_0::SimdAdd          328      0.00%     71.14% # Class of committed instruction (Count)
system.cpu.commit.committedInstType_0::SimdAddAcc            0      0.00%     71.14% # Class of committed instruction (Count)
system.cpu.commit.committedInstType_0::SimdAlu          859      0.01%     71.15% # Class of committed instruction (Count)
system.cpu.commit.committedInstType_0::SimdCmp            0      0.00%     71.15% # Class of committed instruction (Count)
system.cpu.commit.committedInstType_0::SimdCvt          928      0.01%     71.16% # Class of committed instruction (Count)
system.cpu.commit.committedInstType_0::SimdMisc         1148      0.02%     71.18% # Class of committed instruction (Count)
system.cpu.commit.committedInstType_0::SimdMult            0      0.00%     71.18% # Class of committed instruction (Count)
system.cpu.commit.committedInstType_0::SimdMultAcc            0      0.00%     71.18% # Class of committed instruction (Count)
system.cpu.commit.committedInstType_0::SimdShift           93      0.00%     71.18% # Class of committed instruction (Count)
system.cpu.commit.committedInstType_0::SimdShiftAcc            0      0.00%     71.18% # Class of committed instruction (Count)
system.cpu.commit.committedInstType_0::SimdDiv            0      0.00%     71.18% # Class of committed instruction (Count)
system.cpu.commit.committedInstType_0::SimdSqrt            0      0.00%     71.18% # Class of committed instruction (Count)
system.cpu.commit.committedInstType_0::SimdFloatAdd            0      0.00%     71.18% # Class of committed instruction (Count)
system.cpu.commit.committedInstType_0::SimdFloatAlu            0      0.00%     71.18% # Class of committed instruction (Count)
system.cpu.commit.committedInstType_0::SimdFloatCmp            0      0.00%     71.18% # Class of committed instruction (Count)
system.cpu.commit.committedInstType_0::SimdFloatCvt            0      0.00%     71.18% # Class of committed instruction (Count)
system.cpu.commit.committedInstType_0::SimdFloatDiv            0      0.00%     71.18% # Class of committed instruction (Count)
system.cpu.commit.committedInstType_0::SimdFloatMisc            0      0.00%     71.18% # Class of committed instruction (Count)
system.cpu.commit.committedInstType_0::SimdFloatMult            0      0.00%     71.18% # Class of committed instruction (Count)
system.cpu.commit.committedInstType_0::SimdFloatMultAcc            0      0.00%     71.18% # Class of committed instruction (Count)
system.cpu.commit.committedInstType_0::SimdFloatSqrt            0      0.00%     71.18% # Class of committed instruction (Count)
system.cpu.commit.committedInstType_0::SimdReduceAdd            0      0.00%     71.18% # Class of committed instruction (Count)
system.cpu.commit.committedInstType_0::SimdReduceAlu            0      0.00%     71.18% # Class of committed instruction (Count)
system.cpu.commit.committedInstType_0::SimdReduceCmp            0      0.00%     71.18% # Class of committed instruction (Count)
system.cpu.commit.committedInstType_0::SimdFloatReduceAdd            0      0.00%     71.18% # Class of committed instruction (Count)
system.cpu.commit.committedInstType_0::SimdFloatReduceCmp            0      0.00%     71.18% # Class of committed instruction (Count)
system.cpu.commit.committedInstType_0::SimdAes            0      0.00%     71.18% # Class of committed instruction (Count)
system.cpu.commit.committedInstType_0::SimdAesMix            0      0.00%     71.18% # Class of committed instruction (Count)
system.cpu.commit.committedInstType_0::SimdSha1Hash            0      0.00%     71.18% # Class of committed instruction (Count)
system.cpu.commit.committedInstType_0::SimdSha1Hash2            0      0.00%     71.18% # Class of committed instruction (Count)
system.cpu.commit.committedInstType_0::SimdSha256Hash            0      0.00%     71.18% # Class of committed instruction (Count)
system.cpu.commit.committedInstType_0::SimdSha256Hash2            0      0.00%     71.18% # Class of committed instruction (Count)
system.cpu.commit.committedInstType_0::SimdShaSigma2            0      0.00%     71.18% # Class of committed instruction (Count)
system.cpu.commit.committedInstType_0::SimdShaSigma3            0      0.00%     71.18% # Class of committed instruction (Count)
system.cpu.commit.committedInstType_0::SimdPredAlu            0      0.00%     71.18% # Class of committed instruction (Count)
system.cpu.commit.committedInstType_0::MemRead      1380814     18.28%     89.46% # Class of committed instruction (Count)
system.cpu.commit.committedInstType_0::MemWrite       793751     10.51%     99.97% # Class of committed instruction (Count)
system.cpu.commit.committedInstType_0::FloatMemRead         1018      0.01%     99.98% # Class of committed instruction (Count)
system.cpu.commit.committedInstType_0::FloatMemWrite         1175      0.02%    100.00% # Class of committed instruction (Count)
system.cpu.commit.committedInstType_0::IprAccess            0      0.00%    100.00% # Class of committed instruction (Count)
system.cpu.commit.committedInstType_0::InstPrefetch            0      0.00%    100.00% # Class of committed instruction (Count)
system.cpu.commit.committedInstType_0::total      7553230                       # Class of committed instruction (Count)
system.cpu.commit.commitEligibleSamples        252635                       # number cycles where commit BW limit reached (Cycle)
system.cpu.dcache.demandHits::cpu.data        1121649                       # number of demand (read+write) hits (Count)
system.cpu.dcache.demandHits::total           1121649                       # number of demand (read+write) hits (Count)
system.cpu.dcache.overallHits::cpu.data       1121649                       # number of overall hits (Count)
system.cpu.dcache.overallHits::total          1121649                       # number of overall hits (Count)
system.cpu.dcache.demandMisses::cpu.data        36956                       # number of demand (read+write) misses (Count)
system.cpu.dcache.demandMisses::total           36956                       # number of demand (read+write) misses (Count)
system.cpu.dcache.overallMisses::cpu.data        36956                       # number of overall misses (Count)
system.cpu.dcache.overallMisses::total          36956                       # number of overall misses (Count)
system.cpu.dcache.demandMissLatency::cpu.data   3477949999                       # number of demand (read+write) miss ticks (Tick)
system.cpu.dcache.demandMissLatency::total   3477949999                       # number of demand (read+write) miss ticks (Tick)
system.cpu.dcache.overallMissLatency::cpu.data   3477949999                       # number of overall miss ticks (Tick)
system.cpu.dcache.overallMissLatency::total   3477949999                       # number of overall miss ticks (Tick)
system.cpu.dcache.demandAccesses::cpu.data      1158605                       # number of demand (read+write) accesses (Count)
system.cpu.dcache.demandAccesses::total       1158605                       # number of demand (read+write) accesses (Count)
system.cpu.dcache.overallAccesses::cpu.data      1158605                       # number of overall (read+write) accesses (Count)
system.cpu.dcache.overallAccesses::total      1158605                       # number of overall (read+write) accesses (Count)
system.cpu.dcache.demandMissRate::cpu.data     0.031897                       # miss rate for demand accesses (Ratio)
system.cpu.dcache.demandMissRate::total      0.031897                       # miss rate for demand accesses (Ratio)
system.cpu.dcache.overallMissRate::cpu.data     0.031897                       # miss rate for overall accesses (Ratio)
system.cpu.dcache.overallMissRate::total     0.031897                       # miss rate for overall accesses (Ratio)
system.cpu.dcache.demandAvgMissLatency::cpu.data 94110.563887                       # average overall miss latency in ticks ((Tick/Count))
system.cpu.dcache.demandAvgMissLatency::total 94110.563887                       # average overall miss latency in ticks ((Tick/Count))
system.cpu.dcache.overallAvgMissLatency::cpu.data 94110.563887                       # average overall miss latency ((Tick/Count))
system.cpu.dcache.overallAvgMissLatency::total 94110.563887                       # average overall miss latency ((Tick/Count))
system.cpu.dcache.blockedCycles::no_mshrs        10078                       # number of cycles access was blocked (Cycle)
system.cpu.dcache.blockedCycles::no_targets            4                       # number of cycles access was blocked (Cycle)
system.cpu.dcache.blockedCauses::no_mshrs          312                       # number of times access was blocked (Count)
system.cpu.dcache.blockedCauses::no_targets            1                       # number of times access was blocked (Count)
system.cpu.dcache.avgBlocked::no_mshrs      32.301282                       # average number of cycles each access was blocked ((Cycle/Count))
system.cpu.dcache.avgBlocked::no_targets            4                       # average number of cycles each access was blocked ((Cycle/Count))
system.cpu.dcache.writebacks::writebacks         2770                       # number of writebacks (Count)
system.cpu.dcache.writebacks::total              2770                       # number of writebacks (Count)
system.cpu.dcache.demandMshrHits::cpu.data         9849                       # number of demand (read+write) MSHR hits (Count)
system.cpu.dcache.demandMshrHits::total          9849                       # number of demand (read+write) MSHR hits (Count)
system.cpu.dcache.overallMshrHits::cpu.data         9849                       # number of overall MSHR hits (Count)
system.cpu.dcache.overallMshrHits::total         9849                       # number of overall MSHR hits (Count)
system.cpu.dcache.demandMshrMisses::cpu.data        27107                       # number of demand (read+write) MSHR misses (Count)
system.cpu.dcache.demandMshrMisses::total        27107                       # number of demand (read+write) MSHR misses (Count)
system.cpu.dcache.overallMshrMisses::cpu.data        27107                       # number of overall MSHR misses (Count)
system.cpu.dcache.overallMshrMisses::total        27107                       # number of overall MSHR misses (Count)
system.cpu.dcache.demandMshrMissLatency::cpu.data   2698664999                       # number of demand (read+write) MSHR miss ticks (Tick)
system.cpu.dcache.demandMshrMissLatency::total   2698664999                       # number of demand (read+write) MSHR miss ticks (Tick)
system.cpu.dcache.overallMshrMissLatency::cpu.data   2698664999                       # number of overall MSHR miss ticks (Tick)
system.cpu.dcache.overallMshrMissLatency::total   2698664999                       # number of overall MSHR miss ticks (Tick)
system.cpu.dcache.demandMshrMissRate::cpu.data     0.023396                       # mshr miss ratio for demand accesses (Ratio)
system.cpu.dcache.demandMshrMissRate::total     0.023396                       # mshr miss ratio for demand accesses (Ratio)
system.cpu.dcache.overallMshrMissRate::cpu.data     0.023396                       # mshr miss ratio for overall accesses (Ratio)
system.cpu.dcache.overallMshrMissRate::total     0.023396                       # mshr miss ratio for overall accesses (Ratio)
system.cpu.dcache.demandAvgMshrMissLatency::cpu.data 99556.018704                       # average overall mshr miss latency ((Tick/Count))
system.cpu.dcache.demandAvgMshrMissLatency::total 99556.018704                       # average overall mshr miss latency ((Tick/Count))
system.cpu.dcache.overallAvgMshrMissLatency::cpu.data 99556.018704                       # average overall mshr miss latency ((Tick/Count))
system.cpu.dcache.overallAvgMshrMissLatency::total 99556.018704                       # average overall mshr miss latency ((Tick/Count))
system.cpu.dcache.replacements                  14344                       # number of replacements (Count)
system.cpu.dcache.CleanInvalidReq.missLatency::cpu.data    633996000                       # number of CleanInvalidReq miss ticks (Tick)
system.cpu.dcache.CleanInvalidReq.missLatency::total    633996000                       # number of CleanInvalidReq miss ticks (Tick)
system.cpu.dcache.CleanInvalidReq.avgMissLatency::cpu.data          inf                       # average CleanInvalidReq miss latency ((Tick/Count))
system.cpu.dcache.CleanInvalidReq.avgMissLatency::total          inf                       # average CleanInvalidReq miss latency ((Tick/Count))
system.cpu.dcache.CleanInvalidReq.mshrMisses::cpu.data        21736                       # number of CleanInvalidReq MSHR misses (Count)
system.cpu.dcache.CleanInvalidReq.mshrMisses::total        21736                       # number of CleanInvalidReq MSHR misses (Count)
system.cpu.dcache.CleanInvalidReq.mshrMissLatency::cpu.data   1130362000                       # number of CleanInvalidReq MSHR miss ticks (Tick)
system.cpu.dcache.CleanInvalidReq.mshrMissLatency::total   1130362000                       # number of CleanInvalidReq MSHR miss ticks (Tick)
system.cpu.dcache.CleanInvalidReq.mshrMissRate::cpu.data          inf                       # mshr miss rate for CleanInvalidReq accesses (Ratio)
system.cpu.dcache.CleanInvalidReq.mshrMissRate::total          inf                       # mshr miss rate for CleanInvalidReq accesses (Ratio)
system.cpu.dcache.CleanInvalidReq.avgMshrMissLatency::cpu.data 52004.140596                       # average CleanInvalidReq mshr miss latency ((Tick/Count))
system.cpu.dcache.CleanInvalidReq.avgMshrMissLatency::total 52004.140596                       # average CleanInvalidReq mshr miss latency ((Tick/Count))
system.cpu.dcache.ReadReq.hits::cpu.data       351132                       # number of ReadReq hits (Count)
system.cpu.dcache.ReadReq.hits::total          351132                       # number of ReadReq hits (Count)
system.cpu.dcache.ReadReq.misses::cpu.data        34275                       # number of ReadReq misses (Count)
system.cpu.dcache.ReadReq.misses::total         34275                       # number of ReadReq misses (Count)
system.cpu.dcache.ReadReq.missLatency::cpu.data   3213599000                       # number of ReadReq miss ticks (Tick)
system.cpu.dcache.ReadReq.missLatency::total   3213599000                       # number of ReadReq miss ticks (Tick)
system.cpu.dcache.ReadReq.accesses::cpu.data       385407                       # number of ReadReq accesses(hits+misses) (Count)
system.cpu.dcache.ReadReq.accesses::total       385407                       # number of ReadReq accesses(hits+misses) (Count)
system.cpu.dcache.ReadReq.missRate::cpu.data     0.088932                       # miss rate for ReadReq accesses (Ratio)
system.cpu.dcache.ReadReq.missRate::total     0.088932                       # miss rate for ReadReq accesses (Ratio)
system.cpu.dcache.ReadReq.avgMissLatency::cpu.data 93759.270605                       # average ReadReq miss latency ((Tick/Count))
system.cpu.dcache.ReadReq.avgMissLatency::total 93759.270605                       # average ReadReq miss latency ((Tick/Count))
system.cpu.dcache.ReadReq.mshrHits::cpu.data         9844                       # number of ReadReq MSHR hits (Count)
system.cpu.dcache.ReadReq.mshrHits::total         9844                       # number of ReadReq MSHR hits (Count)
system.cpu.dcache.ReadReq.mshrMisses::cpu.data        24431                       # number of ReadReq MSHR misses (Count)
system.cpu.dcache.ReadReq.mshrMisses::total        24431                       # number of ReadReq MSHR misses (Count)
system.cpu.dcache.ReadReq.mshrMissLatency::cpu.data   2440016000                       # number of ReadReq MSHR miss ticks (Tick)
system.cpu.dcache.ReadReq.mshrMissLatency::total   2440016000                       # number of ReadReq MSHR miss ticks (Tick)
system.cpu.dcache.ReadReq.mshrMissRate::cpu.data     0.063390                       # mshr miss rate for ReadReq accesses (Ratio)
system.cpu.dcache.ReadReq.mshrMissRate::total     0.063390                       # mshr miss rate for ReadReq accesses (Ratio)
system.cpu.dcache.ReadReq.avgMshrMissLatency::cpu.data 99873.766935                       # average ReadReq mshr miss latency ((Tick/Count))
system.cpu.dcache.ReadReq.avgMshrMissLatency::total 99873.766935                       # average ReadReq mshr miss latency ((Tick/Count))
system.cpu.dcache.WriteReq.hits::cpu.data       770517                       # number of WriteReq hits (Count)
system.cpu.dcache.WriteReq.hits::total         770517                       # number of WriteReq hits (Count)
system.cpu.dcache.WriteReq.misses::cpu.data         2681                       # number of WriteReq misses (Count)
system.cpu.dcache.WriteReq.misses::total         2681                       # number of WriteReq misses (Count)
system.cpu.dcache.WriteReq.missLatency::cpu.data    264350999                       # number of WriteReq miss ticks (Tick)
system.cpu.dcache.WriteReq.missLatency::total    264350999                       # number of WriteReq miss ticks (Tick)
system.cpu.dcache.WriteReq.accesses::cpu.data       773198                       # number of WriteReq accesses(hits+misses) (Count)
system.cpu.dcache.WriteReq.accesses::total       773198                       # number of WriteReq accesses(hits+misses) (Count)
system.cpu.dcache.WriteReq.missRate::cpu.data     0.003467                       # miss rate for WriteReq accesses (Ratio)
system.cpu.dcache.WriteReq.missRate::total     0.003467                       # miss rate for WriteReq accesses (Ratio)
system.cpu.dcache.WriteReq.avgMissLatency::cpu.data 98601.640806                       # average WriteReq miss latency ((Tick/Count))
system.cpu.dcache.WriteReq.avgMissLatency::total 98601.640806                       # average WriteReq miss latency ((Tick/Count))
system.cpu.dcache.WriteReq.mshrHits::cpu.data            5                       # number of WriteReq MSHR hits (Count)
system.cpu.dcache.WriteReq.mshrHits::total            5                       # number of WriteReq MSHR hits (Count)
system.cpu.dcache.WriteReq.mshrMisses::cpu.data         2676                       # number of WriteReq MSHR misses (Count)
system.cpu.dcache.WriteReq.mshrMisses::total         2676                       # number of WriteReq MSHR misses (Count)
system.cpu.dcache.WriteReq.mshrMissLatency::cpu.data    258648999                       # number of WriteReq MSHR miss ticks (Tick)
system.cpu.dcache.WriteReq.mshrMissLatency::total    258648999                       # number of WriteReq MSHR miss ticks (Tick)
system.cpu.dcache.WriteReq.mshrMissRate::cpu.data     0.003461                       # mshr miss rate for WriteReq accesses (Ratio)
system.cpu.dcache.WriteReq.mshrMissRate::total     0.003461                       # mshr miss rate for WriteReq accesses (Ratio)
system.cpu.dcache.WriteReq.avgMshrMissLatency::cpu.data 96655.081839                       # average WriteReq mshr miss latency ((Tick/Count))
system.cpu.dcache.WriteReq.avgMshrMissLatency::total 96655.081839                       # average WriteReq mshr miss latency ((Tick/Count))
system.cpu.dcache.power_state.pwrStateResidencyTicks::UNDEFINED   7710505000                       # Cumulative time (in ticks) in various power states (Tick)
system.cpu.dcache.tags.tagsInUse           964.484066                       # Average ticks per tags in use ((Tick/Count))
system.cpu.dcache.tags.totalRefs              1160495                       # Total number of references to valid blocks. (Count)
system.cpu.dcache.tags.sampledRefs              27107                       # Sample count of references to valid blocks. (Count)
system.cpu.dcache.tags.avgRefs              42.811635                       # Average number of references to valid blocks. ((Count/Count))
system.cpu.dcache.tags.warmupTick              227000                       # The tick when the warmup percentage was hit. (Tick)
system.cpu.dcache.tags.occupancies::cpu.data   964.484066                       # Average occupied blocks per tick, per requestor ((Count/Tick))
system.cpu.dcache.tags.avgOccs::cpu.data     0.941879                       # Average percentage of cache occupancy ((Ratio/Tick))
system.cpu.dcache.tags.avgOccs::total        0.941879                       # Average percentage of cache occupancy ((Ratio/Tick))
system.cpu.dcache.tags.occupanciesTaskId::1024         1024                       # Occupied blocks per task id (Count)
system.cpu.dcache.tags.ageTaskId_1024::0           36                       # Occupied blocks per task id, per block age (Count)
system.cpu.dcache.tags.ageTaskId_1024::1           93                       # Occupied blocks per task id, per block age (Count)
system.cpu.dcache.tags.ageTaskId_1024::3          895                       # Occupied blocks per task id, per block age (Count)
system.cpu.dcache.tags.ratioOccsTaskId::1024            1                       # Ratio of occupied blocks and all blocks, per task id (Ratio)
system.cpu.dcache.tags.tagAccesses            2387789                       # Number of tag accesses (Count)
system.cpu.dcache.tags.dataAccesses           2387789                       # Number of data accesses (Count)
system.cpu.dcache.tags.power_state.pwrStateResidencyTicks::UNDEFINED   7710505000                       # Cumulative time (in ticks) in various power states (Tick)
system.cpu.decode.idleCycles                   668488                       # Number of cycles decode is idle (Cycle)
system.cpu.decode.blockedCycles               5468165                       # Number of cycles decode is blocked (Cycle)
system.cpu.decode.runCycles                   1007390                       # Number of cycles decode is running (Cycle)
system.cpu.decode.unblockCycles                486359                       # Number of cycles decode is unblocking (Cycle)
system.cpu.decode.squashCycles                  29166                       # Number of cycles decode is squashing (Cycle)
system.cpu.decode.branchResolved               619588                       # Number of times decode resolved a branch (Count)
system.cpu.decode.branchMispred                   569                       # Number of times decode detected a branch misprediction (Count)
system.cpu.decode.decodedInsts               10223738                       # Number of instructions handled by decode (Count)
system.cpu.decode.squashedInsts                  2643                       # Number of squashed instructions handled by decode (Count)
system.cpu.fetch.icacheStallCycles             821891                       # Number of cycles fetch is stalled on an Icache miss (Cycle)
system.cpu.fetch.insts                        6265478                       # Number of instructions fetch has processed (Count)
system.cpu.fetch.branches                      776543                       # Number of branches that fetch encountered (Count)
system.cpu.fetch.predictedBranches             676995                       # Number of branches that fetch has predicted taken (Count)
system.cpu.fetch.cycles                       6806343                       # Number of cycles fetch has run and was not squashing or blocked (Cycle)
system.cpu.fetch.squashCycles                   59450                       # Number of cycles fetch has spent squashing (Cycle)
system.cpu.fetch.miscStallCycles                  187                       # Number of cycles fetch has spent waiting on interrupts, or bad addresses, or out of MSHRs (Cycle)
system.cpu.fetch.pendingTrapStallCycles          1422                       # Number of stall cycles due to pending traps (Cycle)
system.cpu.fetch.cacheLines                    786670                       # Number of cache lines fetched (Count)
system.cpu.fetch.icacheSquashes                  4111                       # Number of outstanding Icache misses that were squashed (Count)
system.cpu.fetch.nisnDist::samples            7659568                       # Number of instructions fetched each cycle (Total) (Count)
system.cpu.fetch.nisnDist::mean              1.443262                       # Number of instructions fetched each cycle (Total) (Count)
system.cpu.fetch.nisnDist::stdev             2.779526                       # Number of instructions fetched each cycle (Total) (Count)
system.cpu.fetch.nisnDist::underflows               0      0.00%      0.00% # Number of instructions fetched each cycle (Total) (Count)
system.cpu.fetch.nisnDist::0                  5712052     74.57%     74.57% # Number of instructions fetched each cycle (Total) (Count)
system.cpu.fetch.nisnDist::1                    36598      0.48%     75.05% # Number of instructions fetched each cycle (Total) (Count)
system.cpu.fetch.nisnDist::2                   433067      5.65%     80.71% # Number of instructions fetched each cycle (Total) (Count)
system.cpu.fetch.nisnDist::3                    71078      0.93%     81.63% # Number of instructions fetched each cycle (Total) (Count)
system.cpu.fetch.nisnDist::4                    88609      1.16%     82.79% # Number of instructions fetched each cycle (Total) (Count)
system.cpu.fetch.nisnDist::5                   148255      1.94%     84.73% # Number of instructions fetched each cycle (Total) (Count)
system.cpu.fetch.nisnDist::6                   233408      3.05%     87.77% # Number of instructions fetched each cycle (Total) (Count)
system.cpu.fetch.nisnDist::7                    49367      0.64%     88.42% # Number of instructions fetched each cycle (Total) (Count)
system.cpu.fetch.nisnDist::8                   887134     11.58%    100.00% # Number of instructions fetched each cycle (Total) (Count)
system.cpu.fetch.nisnDist::overflows                0      0.00%    100.00% # Number of instructions fetched each cycle (Total) (Count)
system.cpu.fetch.nisnDist::min_value                0                       # Number of instructions fetched each cycle (Total) (Count)
system.cpu.fetch.nisnDist::max_value                8                       # Number of instructions fetched each cycle (Total) (Count)
system.cpu.fetch.nisnDist::total              7659568                       # Number of instructions fetched each cycle (Total) (Count)
system.cpu.fetch.branchRate                  0.100712                       # Number of branch fetches per cycle (Ratio)
system.cpu.fetch.rate                        0.812590                       # Number of inst fetches per cycle ((Count/Cycle))
system.cpu.icache.demandHits::cpu.inst         784922                       # number of demand (read+write) hits (Count)
system.cpu.icache.demandHits::total            784922                       # number of demand (read+write) hits (Count)
system.cpu.icache.overallHits::cpu.inst        784922                       # number of overall hits (Count)
system.cpu.icache.overallHits::total           784922                       # number of overall hits (Count)
system.cpu.icache.demandMisses::cpu.inst         1748                       # number of demand (read+write) misses (Count)
system.cpu.icache.demandMisses::total            1748                       # number of demand (read+write) misses (Count)
system.cpu.icache.overallMisses::cpu.inst         1748                       # number of overall misses (Count)
system.cpu.icache.overallMisses::total           1748                       # number of overall misses (Count)
system.cpu.icache.demandMissLatency::cpu.inst    152174000                       # number of demand (read+write) miss ticks (Tick)
system.cpu.icache.demandMissLatency::total    152174000                       # number of demand (read+write) miss ticks (Tick)
system.cpu.icache.overallMissLatency::cpu.inst    152174000                       # number of overall miss ticks (Tick)
system.cpu.icache.overallMissLatency::total    152174000                       # number of overall miss ticks (Tick)
system.cpu.icache.demandAccesses::cpu.inst       786670                       # number of demand (read+write) accesses (Count)
system.cpu.icache.demandAccesses::total        786670                       # number of demand (read+write) accesses (Count)
system.cpu.icache.overallAccesses::cpu.inst       786670                       # number of overall (read+write) accesses (Count)
system.cpu.icache.overallAccesses::total       786670                       # number of overall (read+write) accesses (Count)
system.cpu.icache.demandMissRate::cpu.inst     0.002222                       # miss rate for demand accesses (Ratio)
system.cpu.icache.demandMissRate::total      0.002222                       # miss rate for demand accesses (Ratio)
system.cpu.icache.overallMissRate::cpu.inst     0.002222                       # miss rate for overall accesses (Ratio)
system.cpu.icache.overallMissRate::total     0.002222                       # miss rate for overall accesses (Ratio)
system.cpu.icache.demandAvgMissLatency::cpu.inst 87056.064073                       # average overall miss latency in ticks ((Tick/Count))
system.cpu.icache.demandAvgMissLatency::total 87056.064073                       # average overall miss latency in ticks ((Tick/Count))
system.cpu.icache.overallAvgMissLatency::cpu.inst 87056.064073                       # average overall miss latency ((Tick/Count))
system.cpu.icache.overallAvgMissLatency::total 87056.064073                       # average overall miss latency ((Tick/Count))
system.cpu.icache.blockedCycles::no_mshrs           95                       # number of cycles access was blocked (Cycle)
system.cpu.icache.blockedCycles::no_targets            0                       # number of cycles access was blocked (Cycle)
system.cpu.icache.blockedCauses::no_mshrs            2                       # number of times access was blocked (Count)
system.cpu.icache.blockedCauses::no_targets            0                       # number of times access was blocked (Count)
system.cpu.icache.avgBlocked::no_mshrs      47.500000                       # average number of cycles each access was blocked ((Cycle/Count))
system.cpu.icache.avgBlocked::no_targets          nan                       # average number of cycles each access was blocked ((Cycle/Count))
system.cpu.icache.demandMshrHits::cpu.inst          341                       # number of demand (read+write) MSHR hits (Count)
system.cpu.icache.demandMshrHits::total           341                       # number of demand (read+write) MSHR hits (Count)
system.cpu.icache.overallMshrHits::cpu.inst          341                       # number of overall MSHR hits (Count)
system.cpu.icache.overallMshrHits::total          341                       # number of overall MSHR hits (Count)
system.cpu.icache.demandMshrMisses::cpu.inst         1407                       # number of demand (read+write) MSHR misses (Count)
system.cpu.icache.demandMshrMisses::total         1407                       # number of demand (read+write) MSHR misses (Count)
system.cpu.icache.overallMshrMisses::cpu.inst         1407                       # number of overall MSHR misses (Count)
system.cpu.icache.overallMshrMisses::total         1407                       # number of overall MSHR misses (Count)
system.cpu.icache.demandMshrMissLatency::cpu.inst    124184000                       # number of demand (read+write) MSHR miss ticks (Tick)
system.cpu.icache.demandMshrMissLatency::total    124184000                       # number of demand (read+write) MSHR miss ticks (Tick)
system.cpu.icache.overallMshrMissLatency::cpu.inst    124184000                       # number of overall MSHR miss ticks (Tick)
system.cpu.icache.overallMshrMissLatency::total    124184000                       # number of overall MSHR miss ticks (Tick)
system.cpu.icache.demandMshrMissRate::cpu.inst     0.001789                       # mshr miss ratio for demand accesses (Ratio)
system.cpu.icache.demandMshrMissRate::total     0.001789                       # mshr miss ratio for demand accesses (Ratio)
system.cpu.icache.overallMshrMissRate::cpu.inst     0.001789                       # mshr miss ratio for overall accesses (Ratio)
system.cpu.icache.overallMshrMissRate::total     0.001789                       # mshr miss ratio for overall accesses (Ratio)
system.cpu.icache.demandAvgMshrMissLatency::cpu.inst 88261.549396                       # average overall mshr miss latency ((Tick/Count))
system.cpu.icache.demandAvgMshrMissLatency::total 88261.549396                       # average overall mshr miss latency ((Tick/Count))
system.cpu.icache.overallAvgMshrMissLatency::cpu.inst 88261.549396                       # average overall mshr miss latency ((Tick/Count))
system.cpu.icache.overallAvgMshrMissLatency::total 88261.549396                       # average overall mshr miss latency ((Tick/Count))
system.cpu.icache.replacements                   1151                       # number of replacements (Count)
system.cpu.icache.ReadReq.hits::cpu.inst       784922                       # number of ReadReq hits (Count)
system.cpu.icache.ReadReq.hits::total          784922                       # number of ReadReq hits (Count)
system.cpu.icache.ReadReq.misses::cpu.inst         1748                       # number of ReadReq misses (Count)
system.cpu.icache.ReadReq.misses::total          1748                       # number of ReadReq misses (Count)
system.cpu.icache.ReadReq.missLatency::cpu.inst    152174000                       # number of ReadReq miss ticks (Tick)
system.cpu.icache.ReadReq.missLatency::total    152174000                       # number of ReadReq miss ticks (Tick)
system.cpu.icache.ReadReq.accesses::cpu.inst       786670                       # number of ReadReq accesses(hits+misses) (Count)
system.cpu.icache.ReadReq.accesses::total       786670                       # number of ReadReq accesses(hits+misses) (Count)
system.cpu.icache.ReadReq.missRate::cpu.inst     0.002222                       # miss rate for ReadReq accesses (Ratio)
system.cpu.icache.ReadReq.missRate::total     0.002222                       # miss rate for ReadReq accesses (Ratio)
system.cpu.icache.ReadReq.avgMissLatency::cpu.inst 87056.064073                       # average ReadReq miss latency ((Tick/Count))
system.cpu.icache.ReadReq.avgMissLatency::total 87056.064073                       # average ReadReq miss latency ((Tick/Count))
system.cpu.icache.ReadReq.mshrHits::cpu.inst          341                       # number of ReadReq MSHR hits (Count)
system.cpu.icache.ReadReq.mshrHits::total          341                       # number of ReadReq MSHR hits (Count)
system.cpu.icache.ReadReq.mshrMisses::cpu.inst         1407                       # number of ReadReq MSHR misses (Count)
system.cpu.icache.ReadReq.mshrMisses::total         1407                       # number of ReadReq MSHR misses (Count)
system.cpu.icache.ReadReq.mshrMissLatency::cpu.inst    124184000                       # number of ReadReq MSHR miss ticks (Tick)
system.cpu.icache.ReadReq.mshrMissLatency::total    124184000                       # number of ReadReq MSHR miss ticks (Tick)
system.cpu.icache.ReadReq.mshrMissRate::cpu.inst     0.001789                       # mshr miss rate for ReadReq accesses (Ratio)
system.cpu.icache.ReadReq.mshrMissRate::total     0.001789                       # mshr miss rate for ReadReq accesses (Ratio)
system.cpu.icache.ReadReq.avgMshrMissLatency::cpu.inst 88261.549396                       # average ReadReq mshr miss latency ((Tick/Count))
system.cpu.icache.ReadReq.avgMshrMissLatency::total 88261.549396                       # average ReadReq mshr miss latency ((Tick/Count))
system.cpu.icache.power_state.pwrStateResidencyTicks::UNDEFINED   7710505000                       # Cumulative time (in ticks) in various power states (Tick)
system.cpu.icache.tags.tagsInUse           255.404530                       # Average ticks per tags in use ((Tick/Count))
system.cpu.icache.tags.totalRefs               786329                       # Total number of references to valid blocks. (Count)
system.cpu.icache.tags.sampledRefs               1407                       # Sample count of references to valid blocks. (Count)
system.cpu.icache.tags.avgRefs             558.869225                       # Average number of references to valid blocks. ((Count/Count))
system.cpu.icache.tags.warmupTick              107000                       # The tick when the warmup percentage was hit. (Tick)
system.cpu.icache.tags.occupancies::cpu.inst   255.404530                       # Average occupied blocks per tick, per requestor ((Count/Tick))
system.cpu.icache.tags.avgOccs::cpu.inst     0.997674                       # Average percentage of cache occupancy ((Ratio/Tick))
system.cpu.icache.tags.avgOccs::total        0.997674                       # Average percentage of cache occupancy ((Ratio/Tick))
system.cpu.icache.tags.occupanciesTaskId::1024          256                       # Occupied blocks per task id (Count)
system.cpu.icache.tags.ageTaskId_1024::0           11                       # Occupied blocks per task id, per block age (Count)
system.cpu.icache.tags.ageTaskId_1024::2            1                       # Occupied blocks per task id, per block age (Count)
system.cpu.icache.tags.ageTaskId_1024::3          244                       # Occupied blocks per task id, per block age (Count)
system.cpu.icache.tags.ratioOccsTaskId::1024            1                       # Ratio of occupied blocks and all blocks, per task id (Ratio)
system.cpu.icache.tags.tagAccesses            1574747                       # Number of tag accesses (Count)
system.cpu.icache.tags.dataAccesses           1574747                       # Number of data accesses (Count)
system.cpu.icache.tags.power_state.pwrStateResidencyTicks::UNDEFINED   7710505000                       # Cumulative time (in ticks) in various power states (Tick)
system.cpu.iew.idleCycles                           0                       # Number of cycles IEW is idle (Cycle)
system.cpu.iew.squashCycles                     29166                       # Number of cycles IEW is squashing (Cycle)
system.cpu.iew.blockCycles                    1443674                       # Number of cycles IEW is blocking (Cycle)
system.cpu.iew.unblockCycles                    46620                       # Number of cycles IEW is unblocking (Cycle)
system.cpu.iew.dispatchedInsts                9836714                       # Number of instructions dispatched to IQ (Count)
system.cpu.iew.dispSquashedInsts                  331                       # Number of squashed instructions skipped by dispatch (Count)
system.cpu.iew.dispLoadInsts                  1813570                       # Number of dispatched load instructions (Count)
system.cpu.iew.dispStoreInsts                 1064254                       # Number of dispatched store instructions (Count)
system.cpu.iew.dispNonSpecInsts                    21                       # Number of dispatched non-speculative instructions (Count)
system.cpu.iew.iqFullEvents                     24117                       # Number of times the IQ has become full, causing a stall (Count)
system.cpu.iew.lsqFullEvents                     1880                       # Number of times the LSQ has become full, causing a stall (Count)
system.cpu.iew.memOrderViolationEvents          26594                       # Number of memory order violations (Count)
system.cpu.iew.predictedTakenIncorrect           2392                       # Number of branches that were predicted taken incorrectly (Count)
system.cpu.iew.predictedNotTakenIncorrect         3100                       # Number of branches that were predicted not taken incorrectly (Count)
system.cpu.iew.branchMispredicts                 5492                       # Number of branch mispredicts detected at execute (Count)
system.cpu.iew.instsToCommit                  8613854                       # Cumulative count of insts sent to commit (Count)
system.cpu.iew.writebackCount                 8600281                       # Cumulative count of insts written-back (Count)
system.cpu.iew.producerInst                   6696093                       # Number of instructions producing a value (Count)
system.cpu.iew.consumerInst                   8170684                       # Number of instructions consuming a value (Count)
system.cpu.iew.wbRate                        1.115398                       # Insts written-back per cycle ((Count/Cycle))
system.cpu.iew.wbFanout                      0.819527                       # Average fanout of values written-back ((Count/Count))
system.cpu.interrupts.clk_domain.clock          16000                       # Clock period in ticks (Tick)
system.cpu.lsq0.forwLoads                     1107442                       # Number of loads that had data forwarded from stores (Count)
system.cpu.lsq0.squashedLoads                  431733                       # Number of loads squashed (Count)
system.cpu.lsq0.ignoredResponses                   57                       # Number of memory responses ignored because the instruction is squashed (Count)
[...]
system.mem_ctrl.dram.numReads::cpu.data         26441                       # Number of read requests responded to by this memory (Count)
system.mem_ctrl.dram.numReads::total            27608                       # Number of read requests responded to by this memory (Count)
system.mem_ctrl.dram.numWrites::writebacks          750                       # Number of write requests responded to by this memory (Count)
system.mem_ctrl.dram.numWrites::total             750                       # Number of write requests responded to by this memory (Count)
system.mem_ctrl.dram.bwRead::cpu.inst         9686525                       # Total read bandwidth from this memory ((Byte/Second))
system.mem_ctrl.dram.bwRead::cpu.data       219469931                       # Total read bandwidth from this memory ((Byte/Second))
system.mem_ctrl.dram.bwRead::total          229156456                       # Total read bandwidth from this memory ((Byte/Second))
system.mem_ctrl.dram.bwInstRead::cpu.inst      9686525                       # Instruction read bandwidth from this memory ((Byte/Second))
system.mem_ctrl.dram.bwInstRead::total        9686525                       # Instruction read bandwidth from this memory ((Byte/Second))
system.mem_ctrl.dram.bwWrite::writebacks      6225273                       # Write bandwidth from this memory ((Byte/Second))
system.mem_ctrl.dram.bwWrite::total           6225273                       # Write bandwidth from this memory ((Byte/Second))
system.mem_ctrl.dram.bwTotal::writebacks      6225273                       # Total bandwidth to/from this memory ((Byte/Second))
system.mem_ctrl.dram.bwTotal::cpu.inst        9686525                       # Total bandwidth to/from this memory ((Byte/Second))
system.mem_ctrl.dram.bwTotal::cpu.data      219469931                       # Total bandwidth to/from this memory ((Byte/Second))
system.mem_ctrl.dram.bwTotal::total         235381729                       # Total bandwidth to/from this memory ((Byte/Second))
system.mem_ctrl.dram.readBursts                 27562                       # Number of DRAM read bursts (Count)
system.mem_ctrl.dram.writeBursts                  727                       # Number of DRAM write bursts (Count)
system.mem_ctrl.dram.perBankRdBursts::0          1637                       # Per bank write bursts (Count)
system.mem_ctrl.dram.perBankRdBursts::1          1591                       # Per bank write bursts (Count)
system.mem_ctrl.dram.perBankRdBursts::2          4019                       # Per bank write bursts (Count)
system.mem_ctrl.dram.perBankRdBursts::3          1550                       # Per bank write bursts (Count)
system.mem_ctrl.dram.perBankRdBursts::4          1644                       # Per bank write bursts (Count)
system.mem_ctrl.dram.perBankRdBursts::5          1520                       # Per bank write bursts (Count)
system.mem_ctrl.dram.perBankRdBursts::6          1606                       # Per bank write bursts (Count)
system.mem_ctrl.dram.perBankRdBursts::7          1549                       # Per bank write bursts (Count)
system.mem_ctrl.dram.perBankRdBursts::8          1559                       # Per bank write bursts (Count)
system.mem_ctrl.dram.perBankRdBursts::9          1623                       # Per bank write bursts (Count)
system.mem_ctrl.dram.perBankRdBursts::10         1622                       # Per bank write bursts (Count)
system.mem_ctrl.dram.perBankRdBursts::11         1542                       # Per bank write bursts (Count)
system.mem_ctrl.dram.perBankRdBursts::12         1545                       # Per bank write bursts (Count)
system.mem_ctrl.dram.perBankRdBursts::13         1454                       # Per bank write bursts (Count)
system.mem_ctrl.dram.perBankRdBursts::14         1512                       # Per bank write bursts (Count)
system.mem_ctrl.dram.perBankRdBursts::15         1589                       # Per bank write bursts (Count)
system.mem_ctrl.dram.perBankWrBursts::0            29                       # Per bank write bursts (Count)
system.mem_ctrl.dram.perBankWrBursts::1            16                       # Per bank write bursts (Count)
system.mem_ctrl.dram.perBankWrBursts::2           121                       # Per bank write bursts (Count)
system.mem_ctrl.dram.perBankWrBursts::3            40                       # Per bank write bursts (Count)
system.mem_ctrl.dram.perBankWrBursts::4            76                       # Per bank write bursts (Count)
system.mem_ctrl.dram.perBankWrBursts::5            77                       # Per bank write bursts (Count)
system.mem_ctrl.dram.perBankWrBursts::6            56                       # Per bank write bursts (Count)
system.mem_ctrl.dram.perBankWrBursts::7            16                       # Per bank write bursts (Count)
system.mem_ctrl.dram.perBankWrBursts::8            59                       # Per bank write bursts (Count)
system.mem_ctrl.dram.perBankWrBursts::9            54                       # Per bank write bursts (Count)
system.mem_ctrl.dram.perBankWrBursts::10           48                       # Per bank write bursts (Count)
system.mem_ctrl.dram.perBankWrBursts::11           32                       # Per bank write bursts (Count)
system.mem_ctrl.dram.perBankWrBursts::12           18                       # Per bank write bursts (Count)
system.mem_ctrl.dram.perBankWrBursts::13           17                       # Per bank write bursts (Count)
system.mem_ctrl.dram.perBankWrBursts::14           20                       # Per bank write bursts (Count)
system.mem_ctrl.dram.perBankWrBursts::15           48                       # Per bank write bursts (Count)
system.mem_ctrl.dram.totQLat                232463250                       # Total ticks spent queuing (Tick)
system.mem_ctrl.dram.totBusLat              137810000                       # Total ticks spent in databus transfers (Tick)
system.mem_ctrl.dram.totMemAccLat           749250750                       # Total ticks spent from burst creation until serviced by the DRAM (Tick)
system.mem_ctrl.dram.avgQLat                  8434.19                       # Average queueing delay per DRAM burst ((Tick/Count))
system.mem_ctrl.dram.avgBusLat                5000.00                       # Average bus latency per DRAM burst ((Tick/Count))
system.mem_ctrl.dram.avgMemAccLat            27184.19                       # Average memory access latency per DRAM burst ((Tick/Count))
system.mem_ctrl.dram.readRowHits                19156                       # Number of row buffer hits during reads (Count)
system.mem_ctrl.dram.writeRowHits                 601                       # Number of row buffer hits during writes (Count)
system.mem_ctrl.dram.readRowHitRate             69.50                       # Row buffer hit rate for reads (Ratio)
system.mem_ctrl.dram.writeRowHitRate            82.67                       # Row buffer hit rate for writes (Ratio)
system.mem_ctrl.dram.bytesPerActivate::samples         8532                       # Bytes accessed per row activation (Byte)
system.mem_ctrl.dram.bytesPerActivate::mean   212.200656                       # Bytes accessed per row activation (Byte)
system.mem_ctrl.dram.bytesPerActivate::gmean   169.727938                       # Bytes accessed per row activation (Byte)
system.mem_ctrl.dram.bytesPerActivate::stdev   184.626428                       # Bytes accessed per row activation (Byte)
system.mem_ctrl.dram.bytesPerActivate::0-127         1203     14.10%     14.10% # Bytes accessed per row activation (Byte)
system.mem_ctrl.dram.bytesPerActivate::128-255         4473     52.43%     66.53% # Bytes accessed per row activation (Byte)
system.mem_ctrl.dram.bytesPerActivate::256-383         2196     25.74%     92.26% # Bytes accessed per row activation (Byte)
system.mem_ctrl.dram.bytesPerActivate::384-511          162      1.90%     94.16% # Bytes accessed per row activation (Byte)
system.mem_ctrl.dram.bytesPerActivate::512-639           62      0.73%     94.89% # Bytes accessed per row activation (Byte)
system.mem_ctrl.dram.bytesPerActivate::640-767           45      0.53%     95.42% # Bytes accessed per row activation (Byte)
system.mem_ctrl.dram.bytesPerActivate::768-895          107      1.25%     96.67% # Bytes accessed per row activation (Byte)
system.mem_ctrl.dram.bytesPerActivate::896-1023           77      0.90%     97.57% # Bytes accessed per row activation (Byte)
system.mem_ctrl.dram.bytesPerActivate::1024-1151          207      2.43%    100.00% # Bytes accessed per row activation (Byte)
system.mem_ctrl.dram.bytesPerActivate::total         8532                       # Bytes accessed per row activation (Byte)
system.mem_ctrl.dram.bytesRead                1763968                       # Total bytes read (Byte)
system.mem_ctrl.dram.bytesWritten               46528                       # Total bytes written (Byte)
system.mem_ctrl.dram.avgRdBW               228.774639                       # Average DRAM read bandwidth in MiBytes/s ((Byte/Second))
system.mem_ctrl.dram.avgWrBW                 6.034365                       # Average DRAM write bandwidth in MiBytes/s ((Byte/Second))
system.mem_ctrl.dram.peakBW                  12800.00                       # Theoretical peak bandwidth in MiByte/s ((Byte/Second))
system.mem_ctrl.dram.busUtil                     1.83                       # Data bus utilization in percentage (Ratio)
system.mem_ctrl.dram.busUtilRead                 1.79                       # Data bus utilization in percentage for reads (Ratio)
system.mem_ctrl.dram.busUtilWrite                0.05                       # Data bus utilization in percentage for writes (Ratio)
system.mem_ctrl.dram.pageHitRate                69.84                       # Row buffer hit rate, read and write combined (Ratio)
system.mem_ctrl.dram.power_state.pwrStateResidencyTicks::UNDEFINED   7710505000                       # Cumulative time (in ticks) in various power states (Tick)
system.mem_ctrl.dram.rank0.actEnergy         31894380                       # Energy for activate commands per rank (pJ) (Joule)
system.mem_ctrl.dram.rank0.preEnergy         16952265                       # Energy for precharge commands per rank (pJ) (Joule)
system.mem_ctrl.dram.rank0.readEnergy       107928240                       # Energy for read commands per rank (pJ) (Joule)
system.mem_ctrl.dram.rank0.writeEnergy        2249820                       # Energy for write commands per rank (pJ) (Joule)
system.mem_ctrl.dram.rank0.refreshEnergy 608493600.000000                       # Energy for refresh commands per rank (pJ) (Joule)
system.mem_ctrl.dram.rank0.actBackEnergy   2472962670                       # Energy for active background per rank (pJ) (Joule)
system.mem_ctrl.dram.rank0.preBackEnergy    878339040                       # Energy for precharge background per rank (pJ) (Joule)
system.mem_ctrl.dram.rank0.actPowerDownEnergy            0                       # Energy for active power-down per rank (pJ) (Joule)
system.mem_ctrl.dram.rank0.prePowerDownEnergy            0                       # Energy for precharge power-down per rank (pJ) (Joule)
system.mem_ctrl.dram.rank0.selfRefreshEnergy            0                       # Energy for self refresh per rank (pJ) (Joule)
system.mem_ctrl.dram.rank0.totalEnergy     4118820015                       # Total energy per rank (pJ) (Joule)
system.mem_ctrl.dram.rank0.averagePower    534.182912                       # Core power per rank (mW) (Watt)
system.mem_ctrl.dram.rank0.totalIdleTime            0                       # Total Idle time Per DRAM Rank (Tick)
system.mem_ctrl.dram.rank0.pwrStateTime::IDLE   2262550000                       # Time in different power states (Tick)
system.mem_ctrl.dram.rank0.pwrStateTime::REF    257400000                       # Time in different power states (Tick)
system.mem_ctrl.dram.rank0.pwrStateTime::SREF            0                       # Time in different power states (Tick)
system.mem_ctrl.dram.rank0.pwrStateTime::PRE_PDN            0                       # Time in different power states (Tick)
system.mem_ctrl.dram.rank0.pwrStateTime::ACT   5190555000                       # Time in different power states (Tick)
system.mem_ctrl.dram.rank0.pwrStateTime::ACT_PDN            0                       # Time in different power states (Tick)
system.mem_ctrl.dram.rank1.actEnergy         29024100                       # Energy for activate commands per rank (pJ) (Joule)
system.mem_ctrl.dram.rank1.preEnergy         15426675                       # Energy for precharge commands per rank (pJ) (Joule)
system.mem_ctrl.dram.rank1.readEnergy        88864440                       # Energy for read commands per rank (pJ) (Joule)
system.mem_ctrl.dram.rank1.writeEnergy        1545120                       # Energy for write commands per rank (pJ) (Joule)
system.mem_ctrl.dram.rank1.refreshEnergy 608493600.000000                       # Energy for refresh commands per rank (pJ) (Joule)
system.mem_ctrl.dram.rank1.actBackEnergy   1922874480                       # Energy for active background per rank (pJ) (Joule)
system.mem_ctrl.dram.rank1.preBackEnergy   1341571200                       # Energy for precharge background per rank (pJ) (Joule)
system.mem_ctrl.dram.rank1.actPowerDownEnergy            0                       # Energy for active power-down per rank (pJ) (Joule)
system.mem_ctrl.dram.rank1.prePowerDownEnergy            0                       # Energy for precharge power-down per rank (pJ) (Joule)
system.mem_ctrl.dram.rank1.selfRefreshEnergy            0                       # Energy for self refresh per rank (pJ) (Joule)
system.mem_ctrl.dram.rank1.totalEnergy     4007799615                       # Total energy per rank (pJ) (Joule)
system.mem_ctrl.dram.rank1.averagePower    519.784322                       # Core power per rank (mW) (Watt)
system.mem_ctrl.dram.rank1.totalIdleTime            0                       # Total Idle time Per DRAM Rank (Tick)
system.mem_ctrl.dram.rank1.pwrStateTime::IDLE   3471256250                       # Time in different power states (Tick)
system.mem_ctrl.dram.rank1.pwrStateTime::REF    257400000                       # Time in different power states (Tick)
system.mem_ctrl.dram.rank1.pwrStateTime::SREF            0                       # Time in different power states (Tick)
system.mem_ctrl.dram.rank1.pwrStateTime::PRE_PDN            0                       # Time in different power states (Tick)
system.mem_ctrl.dram.rank1.pwrStateTime::ACT   3981848750                       # Time in different power states (Tick)
system.mem_ctrl.dram.rank1.pwrStateTime::ACT_PDN            0                       # Time in different power states (Tick)
system.mem_ctrl.power_state.pwrStateResidencyTicks::UNDEFINED   7710505000                       # Cumulative time (in ticks) in various power states (Tick)
system.membus.transDist::ReadResp               24990                       # Transaction distribution (Count)
system.membus.transDist::WritebackDirty           508                       # Transaction distribution (Count)
system.membus.transDist::WriteClean               242                       # Transaction distribution (Count)
system.membus.transDist::CleanEvict              1254                       # Transaction distribution (Count)
system.membus.transDist::ReadExReq               2618                       # Transaction distribution (Count)
system.membus.transDist::ReadExResp              2618                       # Transaction distribution (Count)
system.membus.transDist::ReadSharedReq          24990                       # Transaction distribution (Count)
system.membus.transDist::CleanInvalidReq        21736                       # Transaction distribution (Count)
system.membus.pktCount_system.l2cache.mem_side_port::system.mem_ctrl.port        78956                       # Packet count per connected requestor and responder (Count)
system.membus.pktCount_system.l2cache.mem_side_port::total        78956                       # Packet count per connected requestor and responder (Count)
system.membus.pktCount::total                   78956                       # Packet count per connected requestor and responder (Count)
system.membus.pktSize_system.l2cache.mem_side_port::system.mem_ctrl.port      1814912                       # Cumulative packet size per connected requestor and responder (Byte)
system.membus.pktSize_system.l2cache.mem_side_port::total      1814912                       # Cumulative packet size per connected requestor and responder (Byte)
system.membus.pktSize::total                  1814912                       # Cumulative packet size per connected requestor and responder (Byte)
system.membus.snoops                                0                       # Total snoops (Count)
system.membus.snoopTraffic                          0                       # Total snoop traffic (Byte)
system.membus.snoopFanout::samples              49344                       # Request fanout histogram (Count)
system.membus.snoopFanout::mean                     0                       # Request fanout histogram (Count)
system.membus.snoopFanout::stdev                    0                       # Request fanout histogram (Count)
system.membus.snoopFanout::underflows               0      0.00%      0.00% # Request fanout histogram (Count)
system.membus.snoopFanout::0                    49344    100.00%    100.00% # Request fanout histogram (Count)
system.membus.snoopFanout::1                        0      0.00%    100.00% # Request fanout histogram (Count)
system.membus.snoopFanout::overflows                0      0.00%    100.00% # Request fanout histogram (Count)
system.membus.snoopFanout::min_value                0                       # Request fanout histogram (Count)
system.membus.snoopFanout::max_value                0                       # Request fanout histogram (Count)
system.membus.snoopFanout::total                49344                       # Request fanout histogram (Count)
system.membus.power_state.pwrStateResidencyTicks::UNDEFINED   7710505000                       # Cumulative time (in ticks) in various power states (Tick)
system.membus.reqLayer2.occupancy            54348000                       # Layer occupancy (ticks) (Tick)
system.membus.reqLayer2.utilization               0.0                       # Layer utilization (Ratio)
system.membus.respLayer0.occupancy          146982000                       # Layer occupancy (ticks) (Tick)
system.membus.respLayer0.utilization              0.0                       # Layer utilization (Ratio)
system.membus.snoop_filter.totRequests          51106                       # Total number of requests made to the snoop filter. (Count)
system.membus.snoop_filter.hitSingleRequests        23484                       # Number of requests hitting in the snoop filter with a single holder of the requested data. (Count)
system.membus.snoop_filter.hitMultiRequests            0                       # Number of requests hitting in the snoop filter with multiple (>1) holders of the requested data. (Count)
system.membus.snoop_filter.totSnoops                0                       # Total number of snoops made to the snoop filter. (Count)
system.membus.snoop_filter.hitSingleSnoops            0                       # Number of snoops hitting in the snoop filter with a single holder of the requested data. (Count)
system.membus.snoop_filter.hitMultiSnoops            0                       # Number of snoops hitting in the snoop filter with multiple (>1) holders of the requested data. (Count)
system.workload.inst.arm                            0                       # number of arm instructions executed (Count)
system.workload.inst.quiesce                        0                       # number of quiesce instructions executed (Count)

---------- End Simulation Statistics   ----------
